BEGIN Configuration File: examples/mesh88_lat
// $Id$

// Copyright (c) 2007-2015, Trustees of The Leland Stanford Junior University
// All rights reserved.
//
// Redistribution and use in source and binary forms, with or without
// modification, are permitted provided that the following conditions are met:
//
// Redistributions of source code must retain the above copyright notice, this
// list of conditions and the following disclaimer.
// Redistributions in binary form must reproduce the above copyright notice,
// this list of conditions and the following disclaimer in the documentation
// and/or other materials provided with the distribution.
//
// THIS SOFTWARE IS PROVIDED BY THE COPYRIGHT HOLDERS AND CONTRIBUTORS "AS IS"
// AND ANY EXPRESS OR IMPLIED WARRANTIES, INCLUDING, BUT NOT LIMITED TO, THE
// IMPLIED WARRANTIES OF MERCHANTABILITY AND FITNESS FOR A PARTICULAR PURPOSE
// ARE DISCLAIMED. IN NO EVENT SHALL THE COPYRIGHT OWNER OR CONTRIBUTORS BE
// LIABLE FOR ANY DIRECT, INDIRECT, INCIDENTAL, SPECIAL, EXEMPLARY, OR
// CONSEQUENTIAL DAMAGES (INCLUDING, BUT NOT LIMITED TO, PROCUREMENT OF
// SUBSTITUTE GOODS OR SERVICES; LOSS OF USE, DATA, OR PROFITS; OR BUSINESS
// INTERRUPTION) HOWEVER CAUSED AND ON ANY THEORY OF LIABILITY, WHETHER IN
// CONTRACT, STRICT LIABILITY, OR TORT (INCLUDING NEGLIGENCE OR OTHERWISE)
// ARISING IN ANY WAY OUT OF THE USE OF THIS SOFTWARE, EVEN IF ADVISED OF THE
// POSSIBILITY OF SUCH DAMAGE.

//8X8 mesh with 20 flits per packet under injection mode
//injection rate here is packet per cycle, NOT flit per cycle

// Topology

topology = mesh;
k = 8;
n = 2;

// Routing
routing_function = dor;

// Flow control
num_vcs     = 8;
vc_buf_size = 8;
wait_for_tail_credit = 1;

// Router architecture
vc_allocator = islip;
sw_allocator = islip;
alloc_iters  = 1;

credit_delay   = 2;
routing_delay  = 0;
vc_alloc_delay = 1;
sw_alloc_delay = 1;

input_speedup     = 2;
output_speedup    = 1;
internal_speedup  = 1.0;


// Traffic
traffic = transpose;
packet_size = 20;


// Simulation
sim_type = latency;

injection_rate = 0.005;


END Configuration File: examples/mesh88_lat
Class 0:
Packet latency average = 57.8681
	minimum = 25
	maximum = 158
Network latency average = 57.0208
	minimum = 25
	maximum = 158
Slowest packet = 182
Flit latency average = 32.1795
	minimum = 6
	maximum = 139
Slowest flit = 3659
Fragmentation average = 10.2118
	minimum = 0
	maximum = 88
Injected packet rate average = 0.0046875
	minimum = 0.001 (at node 44)
	maximum = 0.011 (at node 7)
Accepted packet rate average = 0.0045
	minimum = 0.001 (at node 37)
	maximum = 0.009 (at node 56)
Injected flit rate average = 0.0928906
	minimum = 0.02 (at node 44)
	maximum = 0.212 (at node 7)
Accepted flit rate average= 0.090625
	minimum = 0.02 (at node 37)
	maximum = 0.18 (at node 56)
Injected packet length average = 19.8167
Accepted packet length average = 20.1389
Total in-flight flits = 200 (0 measured)
latency change    = 1
throughput change = 1
Class 0:
Packet latency average = 56.7602
	minimum = 25
	maximum = 158
Network latency average = 55.6139
	minimum = 25
	maximum = 158
Slowest packet = 182
Flit latency average = 31.6464
	minimum = 6
	maximum = 139
Slowest flit = 3659
Fragmentation average = 8.67347
	minimum = 0
	maximum = 88
Injected packet rate average = 0.00477344
	minimum = 0.002 (at node 44)
	maximum = 0.008 (at node 7)
Accepted packet rate average = 0.00459375
	minimum = 0.002 (at node 37)
	maximum = 0.0075 (at node 6)
Injected flit rate average = 0.0948047
	minimum = 0.04 (at node 44)
	maximum = 0.1595 (at node 7)
Accepted flit rate average= 0.0926484
	minimum = 0.04 (at node 37)
	maximum = 0.15 (at node 6)
Injected packet length average = 19.8609
Accepted packet length average = 20.1684
Total in-flight flits = 361 (0 measured)
latency change    = 0.0195181
throughput change = 0.02184
Class 0:
Packet latency average = 70.4615
	minimum = 25
	maximum = 206
Network latency average = 68.7692
	minimum = 25
	maximum = 200
Slowest packet = 675
Flit latency average = 38.145
	minimum = 6
	maximum = 181
Slowest flit = 13519
Fragmentation average = 20.6923
	minimum = 0
	maximum = 127
Injected packet rate average = 0.005125
	minimum = 0.001 (at node 3)
	maximum = 0.01 (at node 60)
Accepted packet rate average = 0.00507813
	minimum = 0.001 (at node 14)
	maximum = 0.009 (at node 15)
Injected flit rate average = 0.102875
	minimum = 0.02 (at node 3)
	maximum = 0.2 (at node 60)
Accepted flit rate average= 0.102297
	minimum = 0.02 (at node 14)
	maximum = 0.187 (at node 15)
Injected packet length average = 20.0732
Accepted packet length average = 20.1446
Total in-flight flits = 374 (0 measured)
latency change    = 0.194451
throughput change = 0.094318
Warmed up ...Time used is 3000 cycles
Class 0:
Packet latency average = 63.3763
	minimum = 25
	maximum = 242
Network latency average = 61.2437
	minimum = 25
	maximum = 221
Slowest packet = 1052
Flit latency average = 33.9499
	minimum = 6
	maximum = 202
Slowest flit = 21759
Fragmentation average = 15.957
	minimum = 0
	maximum = 136
Injected packet rate average = 0.00464062
	minimum = 0 (at node 41)
	maximum = 0.009 (at node 11)
Accepted packet rate average = 0.00476562
	minimum = 0 (at node 13)
	maximum = 0.009 (at node 20)
Injected flit rate average = 0.0924062
	minimum = 0 (at node 41)
	maximum = 0.18 (at node 11)
Accepted flit rate average= 0.0947344
	minimum = 0 (at node 13)
	maximum = 0.18 (at node 20)
Injected packet length average = 19.9125
Accepted packet length average = 19.8787
Total in-flight flits = 251 (251 measured)
latency change    = 0.111796
throughput change = 0.0798285
Class 0:
Packet latency average = 60.5348
	minimum = 25
	maximum = 242
Network latency average = 58.9911
	minimum = 25
	maximum = 225
Slowest packet = 1052
Flit latency average = 32.8536
	minimum = 6
	maximum = 206
Slowest flit = 27839
Fragmentation average = 13.6114
	minimum = 0
	maximum = 143
Injected packet rate average = 0.00452344
	minimum = 0.001 (at node 39)
	maximum = 0.0075 (at node 59)
Accepted packet rate average = 0.00458594
	minimum = 0.001 (at node 13)
	maximum = 0.0075 (at node 44)
Injected flit rate average = 0.0903594
	minimum = 0.02 (at node 39)
	maximum = 0.15 (at node 59)
Accepted flit rate average= 0.0910938
	minimum = 0.02 (at node 13)
	maximum = 0.15 (at node 44)
Injected packet length average = 19.9758
Accepted packet length average = 19.8637
Total in-flight flits = 294 (294 measured)
latency change    = 0.0469414
throughput change = 0.0399657
Class 0:
Packet latency average = 62.2322
	minimum = 25
	maximum = 242
Network latency average = 60.5552
	minimum = 25
	maximum = 225
Slowest packet = 1052
Flit latency average = 33.6967
	minimum = 6
	maximum = 206
Slowest flit = 27839
Fragmentation average = 14.723
	minimum = 0
	maximum = 143
Injected packet rate average = 0.00463021
	minimum = 0.002 (at node 38)
	maximum = 0.00733333 (at node 9)
Accepted packet rate average = 0.00466667
	minimum = 0.002 (at node 52)
	maximum = 0.00733333 (at node 9)
Injected flit rate average = 0.0926354
	minimum = 0.04 (at node 38)
	maximum = 0.146667 (at node 9)
Accepted flit rate average= 0.0932031
	minimum = 0.04 (at node 52)
	maximum = 0.146667 (at node 9)
Injected packet length average = 20.0067
Accepted packet length average = 19.9721
Total in-flight flits = 259 (259 measured)
latency change    = 0.0272757
throughput change = 0.022632
Class 0:
Packet latency average = 62.6748
	minimum = 25
	maximum = 242
Network latency average = 61.0521
	minimum = 25
	maximum = 225
Slowest packet = 1052
Flit latency average = 33.6992
	minimum = 6
	maximum = 206
Slowest flit = 27839
Fragmentation average = 15.184
	minimum = 0
	maximum = 145
Injected packet rate average = 0.00472266
	minimum = 0.0025 (at node 22)
	maximum = 0.007 (at node 9)
Accepted packet rate average = 0.00475
	minimum = 0.00225 (at node 60)
	maximum = 0.007 (at node 39)
Injected flit rate average = 0.0943047
	minimum = 0.046 (at node 39)
	maximum = 0.13775 (at node 9)
Accepted flit rate average= 0.0945742
	minimum = 0.045 (at node 60)
	maximum = 0.13625 (at node 9)
Injected packet length average = 19.9686
Accepted packet length average = 19.9104
Total in-flight flits = 343 (343 measured)
latency change    = 0.00706195
throughput change = 0.0144975
Draining all recorded packets ...
Draining remaining packets ...
Time taken is 7169 cycles
====== Overall Traffic Statistics ======
====== Traffic class 0 ======
Packet latency average = 62.828 (1 samples)
	minimum = 25 (1 samples)
	maximum = 242 (1 samples)
Network latency average = 61.2175 (1 samples)
	minimum = 25 (1 samples)
	maximum = 225 (1 samples)
Flit latency average = 33.7082 (1 samples)
	minimum = 6 (1 samples)
	maximum = 206 (1 samples)
Fragmentation average = 15.2457 (1 samples)
	minimum = 0 (1 samples)
	maximum = 145 (1 samples)
Injected packet rate average = 0.00472266 (1 samples)
	minimum = 0.0025 (1 samples)
	maximum = 0.007 (1 samples)
Accepted packet rate average = 0.00475 (1 samples)
	minimum = 0.00225 (1 samples)
	maximum = 0.007 (1 samples)
Injected flit rate average = 0.0943047 (1 samples)
	minimum = 0.046 (1 samples)
	maximum = 0.13775 (1 samples)
Accepted flit rate average = 0.0945742 (1 samples)
	minimum = 0.045 (1 samples)
	maximum = 0.13625 (1 samples)
Injected packet size average = 19.9686 (1 samples)
Accepted packet size average = 19.9104 (1 samples)
Hops average = 6.08685 (1 samples)
Total run time 0.608212
Total reads : 273240
Total writes : 273240
L = 2 K = 8.1 M = 2 N = 1
-----------------------------------------
- OCN Power Summary
- Completion Time:         7169
- Flit Widths:            128
- Channel Wire Power:      48.4576
- Channel Clock Power:     2.9085
- Channel Retiming Power:  0.602059
- Channel Leakage Power:   1.09645
- Input Read Power:        2.40616
- Input Write Power:       2.40616
- Input Leakage Power:     0.754975
- Switch Power:            4.95
- Switch Control Power:    1.98953
- Switch Leakage Power:    1.87408
- Output DFF Power:        0.259605
- Output Clk Power:        1.21188
- Output Control Power:    0.133978
- Total Power:             69.0509
-----------------------------------------

-----------------------------------------
- OCN Area Summary
- Channel Area:  0.217936
- Switch  Area:  0.671089
- Input  Area:   0.805306
- Output  Area:  0.0335544
- Total Area:    1.72789
-----------------------------------------
